A 0X5 1201
  xed2sdf           3D
 
 36 38  0  0  0  0  0  0  0  0999 V2000
   -6.7662   -6.0289  -15.4963 C   0  0  0  0  0  0  0  0  0  0  0  0
   -7.3618   -4.7563  -15.5872 C   0  0  0  0  0  0  0  0  0  0  0  0
   -6.5913   -3.6258  -15.8248 C   0  0  0  0  0  0  0  0  0  0  0  0
   -8.7582   -9.1869  -16.0295 C   0  0  0  0  0  0  0  0  0  0  0  0
   -7.6456   -7.1696  -15.1639 C   0  0  0  0  0  0  0  0  0  0  0  0
   -9.5724   -9.5156  -14.9248 C   0  0  0  0  0  0  0  0  0  0  0  0
  -10.4438  -10.5980  -15.0353 C   0  0  0  0  0  0  0  0  0  0  0  0
   -5.3770   -6.1522  -15.6879 C   0  0  0  0  0  0  0  0  0  0  0  0
   -5.2243   -3.7560  -16.0024 C   0  0  0  0  0  0  0  0  0  0  0  0
   -4.6206   -5.0107  -15.9345 C   0  0  0  0  0  0  0  0  0  0  0  0
   -9.0769   -4.6032  -15.4477 Cl  0  0  0  0  0  0  0  0  0  0  0  0
   -8.1379   -7.2170  -14.0320 O   0  0  0  0  0  0  0  0  0  0  0  0
   -7.9119   -8.0784  -16.1170 N   0  0  0  0  0  0  0  0  0  0  0  0
  -10.4791  -11.3249  -16.1515 N   0  0  0  0  0  0  0  0  0  0  0  0
   -9.7229  -11.0622  -17.2182 C   0  0  0  0  0  0  0  0  0  0  0  0
   -8.8595   -9.9637  -17.1827 C   0  0  0  0  0  0  0  0  0  0  0  0
   -9.8261  -11.8780  -18.3664 N   0  0  0  0  0  0  0  0  0  0  0  0
   -8.8688  -11.9803  -19.3381 C   0  0  0  0  0  0  0  0  0  0  0  0
   -7.8361  -11.3387  -19.2727 O   0  0  0  0  0  0  0  0  0  0  0  0
   -9.0870  -12.9032  -20.5304 C   0  0  0  0  0  0  0  0  0  0  0  0
   -8.4407  -12.5425  -21.8752 C   0  0  0  0  0  0  0  0  0  0  0  0
   -7.8924  -13.7085  -21.0572 C   0  0  0  0  0  0  0  0  0  0  0  0
   -4.5782   -7.6948  -15.6771 Cl  0  0  0  0  0  0  0  0  0  0  0  0
   -8.9304  -12.7146  -22.7303 H   0  0  0  0  0  0  0  0  0  0  0  0
   -7.9091  -11.7002  -21.9679 H   0  0  0  0  0  0  0  0  0  0  0  0
   -7.0005  -13.6340  -20.6110 H   0  0  0  0  0  0  0  0  0  0  0  0
   -8.0197  -14.6484  -21.3745 H   0  0  0  0  0  0  0  0  0  0  0  0
   -7.0208   -2.7240  -15.8677 H   0  0  0  0  0  0  0  0  0  0  0  0
   -9.5249   -8.9828  -14.0797 H   0  0  0  0  0  0  0  0  0  0  0  0
  -11.0459  -10.8305  -14.2716 H   0  0  0  0  0  0  0  0  0  0  0  0
   -4.6666   -2.9457  -16.1800 H   0  0  0  0  0  0  0  0  0  0  0  0
   -3.6325   -5.0911  -16.0642 H   0  0  0  0  0  0  0  0  0  0  0  0
   -7.4487   -7.9460  -16.9939 H   0  0  0  0  0  0  0  0  0  0  0  0
   -8.3124   -9.7343  -17.9876 H   0  0  0  0  0  0  0  0  0  0  0  0
  -10.6588  -12.4204  -18.4768 H   0  0  0  0  0  0  0  0  0  0  0  0
  -10.0149  -13.1218  -20.2288 H   0  0  0  0  0  0  0  0  0  0  0  0
  1  2  2  0
  1  5  1  0
  1  8  1  0
  2  3  1  0
  2 11  1  0
  3  9  2  0
  4  6  2  0
  4 13  1  0
  4 16  1  0
  5 12  2  0
  5 13  1  0
  6  7  1  0
  7 14  2  0
  8 10  2  0
  8 23  1  0
  9 10  1  0
 14 15  1  0
 15 16  2  0
 15 17  1  0
 17 18  1  0
 18 19  2  0
 18 20  1  0
 20 21  1  0
 20 22  1  0
 21 22  1  0
  3 28  1  0
  6 29  1  0
  7 30  1  0
  9 31  1  0
 10 32  1  0
 13 33  1  0
 16 34  1  0
 17 35  1  0
 20 36  1  0
 21 24  1  0
 21 25  1  0
 22 26  1  0
 22 27  1  0
M  END
>  <Favorite_cresset>
false

>  <Protein_cresset>
4GIH_P

>  <MW_cresset>
350.2

>  <#Atoms_cresset>
23

>  <SlogP_cresset>
4

>  <TPSA_cresset>
71.1

>  <Flexibility_cresset>
1.8

>  <Rof5_cresset>
0

>  <Confs_cresset>
0

>  <Poses_cresset>
0

$$$$
