lig_ejm_45_D
  -Sire-202200300

 39 41  0  0  0  0  0  0  0  0999 V2000
   -5.7560   -3.5550  -15.6300 C   0  0  0  0  0  0  0  0  0  0  0  0
   -5.6570   -4.2100  -16.8600 C   0  0  0  0  0  0  0  0  0  0  0  0
   -6.1890   -5.4980  -17.0120 C   0  0  0  0  0  0  0  0  0  0  0  0
   -6.8490   -6.1440  -15.9350 C   0  0  0  0  0  0  0  0  0  0  0  0
   -7.0090   -5.4340  -14.7130 C   0  0  0  0  0  0  0  0  0  0  0  0
   -6.3950   -4.1840  -14.5530 C   0  0  0  0  0  0  0  0  0  0  0  0
   -8.0140   -6.0090  -13.3790 Cl  0  0  0  0  0  0  0  0  0  0  0  0
   -7.2670   -7.5760  -16.1040 C   0  0  0  0  0  0  0  0  0  0  0  0
   -6.4820   -8.4280  -16.4990 O   0  0  0  0  0  0  0  0  0  0  0  0
   -8.5620   -7.8810  -15.7770 N   0  0  0  0  0  0  0  0  0  0  0  0
   -9.2000   -9.1150  -15.9900 C   0  0  0  0  0  0  0  0  0  0  0  0
   -9.9470   -9.6930  -14.9660 C   0  0  0  0  0  0  0  0  0  0  0  0
  -10.5920  -10.9060  -15.2090 C   0  0  0  0  0  0  0  0  0  0  0  0
  -10.5220  -11.5460  -16.3890 N   0  0  0  0  0  0  0  0  0  0  0  0
   -9.8050  -10.9830  -17.3740 C   0  0  0  0  0  0  0  0  0  0  0  0
   -9.1440   -9.7610  -17.2220 C   0  0  0  0  0  0  0  0  0  0  0  0
   -9.7780  -11.7310  -18.5460 N   0  0  0  0  0  0  0  0  0  0  0  0
   -8.9210  -11.7090  -19.6200 C   0  0  0  0  0  0  0  0  0  0  0  0
   -7.9980  -10.9150  -19.7160 O   0  0  0  0  0  0  0  0  0  0  0  0
   -9.2040  -12.7650  -20.7130 C   0  0  0  0  0  0  0  0  0  0  0  0
   -8.0170  -13.0750  -21.6460 C   0  0  0  0  0  0  0  0  0  0  0  0
   -8.2830  -13.6180  -23.0350 C   0  0  0  0  0  0  0  0  0  0  0  0
   -7.7260  -12.2230  -22.8660 C   0  0  0  0  0  0  0  0  0  0  0  0
   -6.0570   -6.2460  -18.5970 Cl  0  0  0  0  0  0  0  0  0  0  0  0
   -5.3420   -2.5560  -15.5130 H   0  0  0  0  0  0  0  0  0  0  0  0
   -5.1420   -3.7260  -17.6890 H   0  0  0  0  0  0  0  0  0  0  0  0
   -6.4300   -3.6860  -13.5910 H   0  0  0  0  0  0  0  0  0  0  0  0
   -9.0960   -7.1510  -15.3200 H   0  0  0  0  0  0  0  0  0  0  0  0
  -10.0230   -9.2210  -13.9930 H   0  0  0  0  0  0  0  0  0  0  0  0
  -11.1850  -11.3860  -14.4370 H   0  0  0  0  0  0  0  0  0  0  0  0
   -8.5990   -9.3080  -18.0480 H   0  0  0  0  0  0  0  0  0  0  0  0
  -10.5720  -12.3600  -18.6140 H   0  0  0  0  0  0  0  0  0  0  0  0
  -10.0500  -12.4380  -21.3080 H   0  0  0  0  0  0  0  0  0  0  0  0
   -9.5710  -13.6860  -20.2630 H   0  0  0  0  0  0  0  0  0  0  0  0
   -7.1470  -13.4600  -21.1180 H   0  0  0  0  0  0  0  0  0  0  0  0
   -9.3220  -13.7310  -23.3310 H   0  0  0  0  0  0  0  0  0  0  0  0
   -7.6250  -14.3870  -23.4360 H   0  0  0  0  0  0  0  0  0  0  0  0
   -6.6810  -12.0670  -23.1280 H   0  0  0  0  0  0  0  0  0  0  0  0
   -8.3750  -11.3830  -23.1060 H   0  0  0  0  0  0  0  0  0  0  0  0
  1  2  2  0         
  1 25  1  0         
  1  6  1  0         
  2  3  1  0         
  2 26  1  0         
  3 24  1  0         
  3  4  2  0         
  4  8  1  0         
  4  5  1  0         
  5  6  2  0         
  5  7  1  0         
  6 27  1  0         
  8  9  2  0         
  8 10  1  0         
 10 11  1  0         
 10 28  1  0         
 11 16  1  0         
 11 12  2  0         
 12 13  1  0         
 12 29  1  0         
 13 14  2  0         
 13 30  1  0         
 14 15  1  0         
 15 17  1  0         
 15 16  2  0         
 16 31  1  0         
 17 18  1  0         
 17 32  1  0         
 18 19  2  0         
 18 20  1  0         
 20 33  1  0         
 20 34  1  0         
 20 21  1  0         
 21 23  1  0         
 21 35  1  0         
 21 22  1  0         
 22 23  1  0         
 22 36  1  0         
 22 37  1  0         
 23 38  1  0         
 23 39  1  0         
M  END
> <Flexibility_cresset>
2.8

> <Favorite_cresset>
false

> <Poses_cresset>
0

> <LF dG>
-9.947

> <#Atoms_cresset>
24

> <SlogP_cresset>
4.4

> <Protein_cresset>
AF_fixed_His_P (1)

> <MW_cresset>
364.2

> <TPSA_cresset>
71.1

> <LF VSscore>
-10.856

> <LF LE>
-0.414

> <Rof5_cresset>
0

> <Confs_cresset>
0

> <LF Rank Score>
-6.142

$$$$
