A 0X5 1201_D (2)
  -Sire-202200300

 36 38  0  0  0  0  0  0  0  0999 V2000
   -6.8110   -6.1370  -16.1920 C   0  0  0  0  0  0  0  0  0  0  0  0
   -6.1230   -5.5320  -17.2730 C   0  0  0  0  0  0  0  0  0  0  0  0
   -5.5880   -4.2420  -17.1470 C   0  0  0  0  0  0  0  0  0  0  0  0
   -9.1280   -9.1330  -16.1660 C   0  0  0  0  0  0  0  0  0  0  0  0
   -7.2030   -7.5830  -16.2900 C   0  0  0  0  0  0  0  0  0  0  0  0
   -9.9150   -9.7110  -15.1750 C   0  0  0  0  0  0  0  0  0  0  0  0
  -10.5540  -10.9220  -15.4490 C   0  0  0  0  0  0  0  0  0  0  0  0
   -7.0120   -5.3830  -15.0100 C   0  0  0  0  0  0  0  0  0  0  0  0
   -5.7090   -3.5490  -15.9390 C   0  0  0  0  0  0  0  0  0  0  0  0
   -6.4010   -4.1320  -14.8730 C   0  0  0  0  0  0  0  0  0  0  0  0
   -5.9530   -6.3430  -18.8220 Cl  0  0  0  0  0  0  0  0  0  0  0  0
   -6.3940   -8.4400  -16.6020 O   0  0  0  0  0  0  0  0  0  0  0  0
   -8.5000   -7.8940  -15.9590 N   0  0  0  0  0  0  0  0  0  0  0  0
  -10.4480  -11.5550  -16.6340 N   0  0  0  0  0  0  0  0  0  0  0  0
   -9.6800  -10.9970  -17.5770 C   0  0  0  0  0  0  0  0  0  0  0  0
   -9.0230   -9.7820  -17.3920 C   0  0  0  0  0  0  0  0  0  0  0  0
   -9.6520  -11.6990  -18.7760 N   0  0  0  0  0  0  0  0  0  0  0  0
   -8.7190  -11.6960  -19.7830 C   0  0  0  0  0  0  0  0  0  0  0  0
   -7.6920  -11.0470  -19.7490 O   0  0  0  0  0  0  0  0  0  0  0  0
   -9.0890  -12.5620  -20.9720 C   0  0  0  0  0  0  0  0  0  0  0  0
   -8.5380  -12.1810  -22.3400 C   0  0  0  0  0  0  0  0  0  0  0  0
   -8.0700  -13.4410  -21.6700 C   0  0  0  0  0  0  0  0  0  0  0  0
   -8.0210   -5.9350  -13.6770 Cl  0  0  0  0  0  0  0  0  0  0  0  0
   -5.0500   -3.7880  -17.9750 H   0  0  0  0  0  0  0  0  0  0  0  0
  -10.0360   -9.2380  -14.2040 H   0  0  0  0  0  0  0  0  0  0  0  0
  -11.1830  -11.4000  -14.7030 H   0  0  0  0  0  0  0  0  0  0  0  0
   -5.2750   -2.5580  -15.8310 H   0  0  0  0  0  0  0  0  0  0  0  0
   -6.4490   -3.6140  -13.9250 H   0  0  0  0  0  0  0  0  0  0  0  0
   -9.0700   -7.1400  -15.6020 H   0  0  0  0  0  0  0  0  0  0  0  0
   -8.4460   -9.3290  -18.1890 H   0  0  0  0  0  0  0  0  0  0  0  0
  -10.4840  -12.2610  -18.9070 H   0  0  0  0  0  0  0  0  0  0  0  0
  -10.0990  -12.9600  -20.9420 H   0  0  0  0  0  0  0  0  0  0  0  0
   -7.8200  -11.3660  -22.4140 H   0  0  0  0  0  0  0  0  0  0  0  0
   -9.2020  -12.2810  -23.1970 H   0  0  0  0  0  0  0  0  0  0  0  0
   -8.4220  -14.3480  -22.1490 H   0  0  0  0  0  0  0  0  0  0  0  0
   -7.0460  -13.4680  -21.2990 H   0  0  0  0  0  0  0  0  0  0  0  0
  1  8  1  0         
  1  2  2  0         
  1  5  1  0         
  2  3  1  0         
  2 11  1  0         
  3 24  1  0         
  3  9  2  0         
  4 13  1  0         
  4 16  1  0         
  4  6  2  0         
  5 13  1  0         
  5 12  2  0         
  6 25  1  0         
  6  7  1  0         
  7 14  2  0         
  7 26  1  0         
  8 23  1  0         
  8 10  2  0         
  9 10  1  0         
  9 27  1  0         
 10 28  1  0         
 13 29  1  0         
 14 15  1  0         
 15 17  1  0         
 15 16  2  0         
 16 30  1  0         
 17 18  1  0         
 17 31  1  0         
 18 19  2  0         
 18 20  1  0         
 20 32  1  0         
 20 21  1  0         
 20 22  1  0         
 21 33  1  0         
 21 34  1  0         
 21 22  1  0         
 22 35  1  0         
 22 36  1  0         
M  END
> <Flexibility_cresset>
1.8

> <Favorite_cresset>
false

> <Poses_cresset>
0

> <LF dG>
-9.472

> <#Atoms_cresset>
23

> <SlogP_cresset>
4

> <Protein_cresset>
AF_fixed_His_P (1)

> <MW_cresset>
350.2

> <TPSA_cresset>
71.1

> <LF VSscore>
-10.335

> <LF LE>
-0.412

> <Rof5_cresset>
0

> <Confs_cresset>
0

> <LF Rank Score>
-6.182

$$$$
