lig_ejm_47_D
  xed2sdf           3D
 
 39 41  0  0  0  0  0  0  0  0999 V2000
   -6.1200   -3.8810  -15.9240 C   0  0  0  0  0  0  0  0  0  0  0  0
   -5.7210   -4.3920  -17.1660 C   0  0  0  0  0  0  0  0  0  0  0  0
   -6.0970   -5.6880  -17.5570 C   0  0  0  0  0  0  0  0  0  0  0  0
   -6.8710   -6.4980  -16.6890 C   0  0  0  0  0  0  0  0  0  0  0  0
   -7.3190   -5.9470  -15.4670 C   0  0  0  0  0  0  0  0  0  0  0  0
   -6.9290   -4.6580  -15.0840 C   0  0  0  0  0  0  0  0  0  0  0  0
   -8.4220   -6.8210  -14.4120 Cl  0  0  0  0  0  0  0  0  0  0  0  0
   -7.1710   -7.9400  -16.9890 C   0  0  0  0  0  0  0  0  0  0  0  0
   -6.9060   -8.8250  -16.1930 O   0  0  0  0  0  0  0  0  0  0  0  0
   -7.7510   -8.2070  -18.2050 N   0  0  0  0  0  0  0  0  0  0  0  0
   -8.1930   -9.4680  -18.6340 C   0  0  0  0  0  0  0  0  0  0  0  0
   -9.1230  -10.1880  -17.8870 C   0  0  0  0  0  0  0  0  0  0  0  0
   -9.5520  -11.4280  -18.3630 C   0  0  0  0  0  0  0  0  0  0  0  0
   -9.0960  -11.9570  -19.5070 N   0  0  0  0  0  0  0  0  0  0  0  0
   -8.1550  -11.2990  -20.1860 C   0  0  0  0  0  0  0  0  0  0  0  0
   -7.7140  -10.0280  -19.8160 C   0  0  0  0  0  0  0  0  0  0  0  0
   -7.7470  -11.8300  -21.4100 N   0  0  0  0  0  0  0  0  0  0  0  0
   -7.7100  -13.1520  -21.8210 C   0  0  0  0  0  0  0  0  0  0  0  0
   -7.8880  -14.0250  -20.9910 O   0  0  0  0  0  0  0  0  0  0  0  0
   -7.3980  -13.4130  -23.3840 C   0  0  0  0  0  0  0  0  0  0  0  0
   -6.2000  -12.4210  -23.6160 C   0  0  0  0  0  0  0  0  0  0  0  0
   -7.2060  -11.4240  -24.3120 C   0  0  0  0  0  0  0  0  0  0  0  0
   -8.4130  -12.4000  -24.0310 C   0  0  0  0  0  0  0  0  0  0  0  0
   -5.5650   -6.2490  -19.1330 Cl  0  0  0  0  0  0  0  0  0  0  0  0
   -5.8180   -2.8790  -15.6220 H   0  0  0  0  0  0  0  0  0  0  0  0
   -5.1130   -3.7800  -17.8290 H   0  0  0  0  0  0  0  0  0  0  0  0
   -7.2600   -4.2640  -14.1290 H   0  0  0  0  0  0  0  0  0  0  0  0
   -7.8680   -7.4300  -18.8400 H   0  0  0  0  0  0  0  0  0  0  0  0
   -9.5160   -9.8000  -16.9520 H   0  0  0  0  0  0  0  0  0  0  0  0
  -10.2770  -12.0180  -17.8070 H   0  0  0  0  0  0  0  0  0  0  0  0
   -6.9850   -9.4990  -20.4200 H   0  0  0  0  0  0  0  0  0  0  0  0
   -7.4840  -11.1440  -22.0960 H   0  0  0  0  0  0  0  0  0  0  0  0
   -7.3490  -14.4560  -23.7110 H   0  0  0  0  0  0  0  0  0  0  0  0
   -5.4470  -12.8140  -24.3080 H   0  0  0  0  0  0  0  0  0  0  0  0
   -5.6490  -12.0490  -22.7440 H   0  0  0  0  0  0  0  0  0  0  0  0
   -7.0050  -11.2650  -25.3770 H   0  0  0  0  0  0  0  0  0  0  0  0
   -7.2900  -10.4370  -23.8440 H   0  0  0  0  0  0  0  0  0  0  0  0
   -9.2290  -12.0150  -23.4100 H   0  0  0  0  0  0  0  0  0  0  0  0
   -8.8770  -12.7770  -24.9480 H   0  0  0  0  0  0  0  0  0  0  0  0
  1  2  2  0
  1  6  1  0
  2  3  1  0
  3  4  2  0
  3 24  1  0
  4  5  1  0
  4  8  1  0
  5  6  2  0
  5  7  1  0
  8  9  2  0
  8 10  1  0
 10 11  1  0
 11 12  2  0
 11 16  1  0
 12 13  1  0
 13 14  2  0
 14 15  1  0
 15 16  2  0
 15 17  1  0
 17 18  1  0
 18 19  2  0
 18 20  1  0
 20 21  1  0
 20 23  1  0
 21 22  1  0
 22 23  1  0
  1 25  1  0
  2 26  1  0
  6 27  1  0
 10 28  1  0
 12 29  1  0
 13 30  1  0
 16 31  1  0
 17 32  1  0
 20 33  1  0
 21 34  1  0
 21 35  1  0
 22 36  1  0
 22 37  1  0
 23 38  1  0
 23 39  1  0
M  END
>  <LF dG>
-8.97

>  <LF VSscore>
-9.786

>  <LF Rank Score>
-5.736

>  <LF LE>
-0.374

>  <Favorite_cresset>
false

>  <Protein_cresset>
AF_fixed_His_P (1)

>  <MW_cresset>
364.2

>  <#Atoms_cresset>
24

>  <SlogP_cresset>
4.4

>  <TPSA_cresset>
71.1

>  <Flexibility_cresset>
1.8

>  <Rof5_cresset>
0

>  <Confs_cresset>
0

>  <Poses_cresset>
0

$$$$
