lig_ejm_42_D
  xed2sdf           3D
 
 35 36  0  0  0  0  0  0  0  0999 V2000
   -5.7370   -3.5800  -16.0390 C   0  0  0  0  0  0  0  0  0  0  0  0
   -6.3820   -4.1230  -14.9230 C   0  0  0  0  0  0  0  0  0  0  0  0
   -6.9790   -5.3890  -14.9840 C   0  0  0  0  0  0  0  0  0  0  0  0
   -6.8080   -6.1910  -16.1380 C   0  0  0  0  0  0  0  0  0  0  0  0
   -6.1790   -5.6260  -17.2710 C   0  0  0  0  0  0  0  0  0  0  0  0
   -5.6700   -4.3190  -17.2260 C   0  0  0  0  0  0  0  0  0  0  0  0
   -6.0860   -6.5010  -18.7910 Cl  0  0  0  0  0  0  0  0  0  0  0  0
   -7.2140   -7.6330  -16.1730 C   0  0  0  0  0  0  0  0  0  0  0  0
   -6.4080   -8.5160  -16.4130 O   0  0  0  0  0  0  0  0  0  0  0  0
   -8.5330   -7.8990  -15.8950 N   0  0  0  0  0  0  0  0  0  0  0  0
   -9.1800   -9.1250  -16.1100 C   0  0  0  0  0  0  0  0  0  0  0  0
   -9.9540   -9.7120  -15.1160 C   0  0  0  0  0  0  0  0  0  0  0  0
  -10.5900  -10.9230  -15.3940 C   0  0  0  0  0  0  0  0  0  0  0  0
  -10.4900  -11.5530  -16.5820 N   0  0  0  0  0  0  0  0  0  0  0  0
   -9.7410  -10.9800  -17.5330 C   0  0  0  0  0  0  0  0  0  0  0  0
   -9.0920   -9.7600  -17.3430 C   0  0  0  0  0  0  0  0  0  0  0  0
   -9.6720  -11.7040  -18.7200 N   0  0  0  0  0  0  0  0  0  0  0  0
   -8.7270  -11.6750  -19.7190 C   0  0  0  0  0  0  0  0  0  0  0  0
   -7.7830  -10.9110  -19.7200 O   0  0  0  0  0  0  0  0  0  0  0  0
   -8.9290  -12.7060  -20.8410 C   0  0  0  0  0  0  0  0  0  0  0  0
   -7.8540  -12.6270  -21.9590 C   0  0  0  0  0  0  0  0  0  0  0  0
   -7.9620   -5.8860  -13.6120 Cl  0  0  0  0  0  0  0  0  0  0  0  0
   -5.3200   -2.5750  -15.9930 H   0  0  0  0  0  0  0  0  0  0  0  0
   -6.4240   -3.5560  -14.0020 H   0  0  0  0  0  0  0  0  0  0  0  0
   -5.2140   -3.8830  -18.1100 H   0  0  0  0  0  0  0  0  0  0  0  0
   -9.1080   -7.1140  -15.6220 H   0  0  0  0  0  0  0  0  0  0  0  0
  -10.0560   -9.2490  -14.1380 H   0  0  0  0  0  0  0  0  0  0  0  0
  -11.2000  -11.4120  -14.6400 H   0  0  0  0  0  0  0  0  0  0  0  0
   -8.5180   -9.2930  -18.1340 H   0  0  0  0  0  0  0  0  0  0  0  0
  -10.4520  -12.3420  -18.8250 H   0  0  0  0  0  0  0  0  0  0  0  0
   -9.9250  -12.5760  -21.2710 H   0  0  0  0  0  0  0  0  0  0  0  0
   -8.9160  -13.7100  -20.4100 H   0  0  0  0  0  0  0  0  0  0  0  0
   -6.8630  -12.8860  -21.5650 H   0  0  0  0  0  0  0  0  0  0  0  0
   -8.0870  -13.3230  -22.7750 H   0  0  0  0  0  0  0  0  0  0  0  0
   -7.7920  -11.6150  -22.3820 H   0  0  0  0  0  0  0  0  0  0  0  0
  1  2  2  0
  1  6  1  0
  2  3  1  0
  3  4  2  0
  3 22  1  0
  4  5  1  0
  4  8  1  0
  5  6  2  0
  5  7  1  0
  8  9  2  0
  8 10  1  0
 10 11  1  0
 11 12  2  0
 11 16  1  0
 12 13  1  0
 13 14  2  0
 14 15  1  0
 15 16  2  0
 15 17  1  0
 17 18  1  0
 18 19  2  0
 18 20  1  0
 20 21  1  0
  1 23  1  0
  2 24  1  0
  6 25  1  0
 10 26  1  0
 12 27  1  0
 13 28  1  0
 16 29  1  0
 17 30  1  0
 20 31  1  0
 20 32  1  0
 21 33  1  0
 21 34  1  0
 21 35  1  0
M  END
>  <LF dG>
-9.346

>  <LF VSscore>
-10.207

>  <LF Rank Score>
-6.116

>  <LF LE>
-0.425

>  <Favorite_cresset>
false

>  <Protein_cresset>
AF_fixed_His_P (1)

>  <MW_cresset>
338.2

>  <#Atoms_cresset>
22

>  <SlogP_cresset>
4

>  <TPSA_cresset>
71.1

>  <Flexibility_cresset>
1.8

>  <Rof5_cresset>
0

>  <Confs_cresset>
0

>  <Poses_cresset>
0

$$$$
