lig_jmc_30_D
  xed2sdf           3D
 
 37 39  0  0  1  0  0  0  0  0999 V2000
   -5.6900   -3.5480  -16.4110 C   0  0  0  0  0  0  0  0  0  0  0  0
   -6.3430   -4.0150  -15.2660 C   0  0  0  0  0  0  0  0  0  0  0  0
   -6.9100   -5.2970  -15.2340 C   0  0  0  0  0  0  0  0  0  0  0  0
   -6.7360   -6.1710  -16.3340 C   0  0  0  0  0  0  0  0  0  0  0  0
   -6.1100   -5.6740  -17.5010 C   0  0  0  0  0  0  0  0  0  0  0  0
   -5.5910   -4.3730  -17.5360 C   0  0  0  0  0  0  0  0  0  0  0  0
   -6.0290   -6.6320  -18.9710 Cl  0  0  0  0  0  0  0  0  0  0  0  0
   -7.1220   -7.6220  -16.2820 C   0  0  0  0  0  0  0  0  0  0  0  0
   -6.3060   -8.5050  -16.4900 O   0  0  0  0  0  0  0  0  0  0  0  0
   -8.4340   -7.8970  -15.9870 N   0  0  0  0  0  0  0  0  0  0  0  0
   -9.0810   -9.1260  -16.2040 C   0  0  0  0  0  0  0  0  0  0  0  0
   -9.8980   -9.6810  -15.2280 C   0  0  0  0  0  0  0  0  0  0  0  0
  -10.5670  -10.8730  -15.5140 C   0  0  0  0  0  0  0  0  0  0  0  0
  -10.4510  -11.5130  -16.6960 N   0  0  0  0  0  0  0  0  0  0  0  0
   -9.6540  -10.9800  -17.6310 C   0  0  0  0  0  0  0  0  0  0  0  0
   -8.9670   -9.7810  -17.4280 C   0  0  0  0  0  0  0  0  0  0  0  0
   -9.6020  -11.7090  -18.8240 N   0  0  0  0  0  0  0  0  0  0  0  0
   -8.6740  -11.6790  -19.8470 C   0  0  0  0  0  0  0  0  0  0  0  0
   -7.6900  -10.9680  -19.8310 O   0  0  0  0  0  0  0  0  0  0  0  0
   -8.9960  -12.5910  -21.0290 C   0  0  0  0  0  0  0  0  0  0  0  0
   -7.9240  -13.3310  -21.8330 C   0  0  0  0  0  0  0  0  0  0  0  0
   -8.6000  -12.1300  -22.4290 C   0  0  0  0  0  0  0  0  0  0  0  0
   -6.5060  -13.2370  -21.5460 C   0  0  0  0  0  0  0  0  0  0  0  0
   -5.3720  -13.1900  -21.3480 N   0  0  0  0  0  0  0  0  0  0  0  0
   -7.8580   -5.7310  -13.8200 Cl  0  0  0  0  0  0  0  0  0  0  0  0
   -9.9570  -13.0930  -20.9480 H   0  0  0  0  0  0  0  0  0  0  0  0
   -8.2020  -14.2570  -22.3260 H   0  0  0  0  0  0  0  0  0  0  0  0
   -5.2780   -2.5420  -16.4310 H   0  0  0  0  0  0  0  0  0  0  0  0
   -6.4090   -3.3690  -14.4000 H   0  0  0  0  0  0  0  0  0  0  0  0
   -5.1080   -4.0020  -18.4370 H   0  0  0  0  0  0  0  0  0  0  0  0
   -9.0140   -7.1160  -15.7090 H   0  0  0  0  0  0  0  0  0  0  0  0
  -10.0220   -9.2010  -14.2620 H   0  0  0  0  0  0  0  0  0  0  0  0
  -11.2220  -11.3310  -14.7780 H   0  0  0  0  0  0  0  0  0  0  0  0
   -8.3570   -9.3420  -18.2060 H   0  0  0  0  0  0  0  0  0  0  0  0
  -10.4100  -12.3140  -18.9250 H   0  0  0  0  0  0  0  0  0  0  0  0
   -7.9980  -11.2280  -22.5430 H   0  0  0  0  0  0  0  0  0  0  0  0
   -9.2960  -12.3090  -23.2470 H   0  0  0  0  0  0  0  0  0  0  0  0
  1  2  2  0
  1  6  1  0
  2  3  1  0
  3  4  2  0
  3 25  1  0
  4  5  1  0
  4  8  1  0
  5  6  2  0
  5  7  1  0
  8  9  2  0
  8 10  1  0
 10 11  1  0
 11 12  2  0
 11 16  1  0
 12 13  1  0
 13 14  2  0
 14 15  1  0
 15 16  2  0
 15 17  1  0
 17 18  1  0
 18 19  2  0
 18 20  1  0
 20 21  1  0
 20 22  1  0
 21 22  1  0
 21 23  1  0
 23 24  3  0
  1 28  1  0
  2 29  1  0
  6 30  1  0
 10 31  1  0
 12 32  1  0
 13 33  1  0
 16 34  1  0
 17 35  1  0
 20 26  1  0
 21 27  1  0
 22 36  1  0
 22 37  1  0
M  END
>  <LF dG>
-9.494

>  <LF VSscore>
-10.338

>  <LF Rank Score>
-5.653

>  <LF LE>
-0.38

>  <Favorite_cresset>
false

>  <Protein_cresset>
AF_fixed_His_P (1)

>  <MW_cresset>
375.2

>  <#Atoms_cresset>
25

>  <SlogP_cresset>
3.8

>  <TPSA_cresset>
94.9

>  <Flexibility_cresset>
1.8

>  <Rof5_cresset>
0

>  <Confs_cresset>
0

>  <Poses_cresset>
0

$$$$
