lig_jmc_23_D
  xed2sdf           3D
 
 36 38  0  0  1  0  0  0  0  0999 V2000
   -5.7540   -3.5800  -15.8970 C   0  0  0  0  0  0  0  0  0  0  0  0
   -5.6280   -4.2630  -17.1110 C   0  0  0  0  0  0  0  0  0  0  0  0
   -6.1450   -5.5600  -17.2440 C   0  0  0  0  0  0  0  0  0  0  0  0
   -6.8330   -6.1740  -16.1690 C   0  0  0  0  0  0  0  0  0  0  0  0
   -7.0430   -5.4300  -14.9840 C   0  0  0  0  0  0  0  0  0  0  0  0
   -6.4390   -4.1770  -14.8340 C   0  0  0  0  0  0  0  0  0  0  0  0
   -8.0530   -5.9970  -13.6590 Cl  0  0  0  0  0  0  0  0  0  0  0  0
   -7.2080   -7.6230  -16.2710 C   0  0  0  0  0  0  0  0  0  0  0  0
   -6.3880   -8.4720  -16.5750 O   0  0  0  0  0  0  0  0  0  0  0  0
   -8.5090   -7.9400  -15.9670 N   0  0  0  0  0  0  0  0  0  0  0  0
   -9.1240   -9.1820  -16.1790 C   0  0  0  0  0  0  0  0  0  0  0  0
   -9.9230   -9.7520  -15.1970 C   0  0  0  0  0  0  0  0  0  0  0  0
  -10.5710  -10.9550  -15.4770 C   0  0  0  0  0  0  0  0  0  0  0  0
  -10.4560  -11.5900  -16.6600 N   0  0  0  0  0  0  0  0  0  0  0  0
   -9.6710  -11.0420  -17.5970 C   0  0  0  0  0  0  0  0  0  0  0  0
   -9.0040   -9.8330  -17.4030 C   0  0  0  0  0  0  0  0  0  0  0  0
   -9.6330  -11.7470  -18.7960 N   0  0  0  0  0  0  0  0  0  0  0  0
   -8.7150  -11.7140  -19.8200 C   0  0  0  0  0  0  0  0  0  0  0  0
   -7.7080  -11.0330  -19.7950 O   0  0  0  0  0  0  0  0  0  0  0  0
   -9.0930  -12.5600  -21.0200 C   0  0  0  0  0  0  0  0  0  0  0  0
   -8.0810  -13.4320  -21.7300 C   0  0  0  0  0  0  0  0  0  0  0  0
   -8.5330  -12.1630  -22.3810 C   0  0  0  0  0  0  0  0  0  0  0  0
   -6.8090  -13.5170  -21.2600 F   0  0  0  0  0  0  0  0  0  0  0  0
   -5.9630   -6.3620  -18.7970 Cl  0  0  0  0  0  0  0  0  0  0  0  0
  -10.1070  -12.9500  -21.0000 H   0  0  0  0  0  0  0  0  0  0  0  0
   -8.4070  -14.3490  -22.2160 H   0  0  0  0  0  0  0  0  0  0  0  0
   -5.3300   -2.5840  -15.7820 H   0  0  0  0  0  0  0  0  0  0  0  0
   -5.1070   -3.7950  -17.9440 H   0  0  0  0  0  0  0  0  0  0  0  0
   -6.4950   -3.6700  -13.8790 H   0  0  0  0  0  0  0  0  0  0  0  0
   -9.0970   -7.1890  -15.6320 H   0  0  0  0  0  0  0  0  0  0  0  0
  -10.0520   -9.2770  -14.2290 H   0  0  0  0  0  0  0  0  0  0  0  0
  -11.2080  -11.4290  -14.7340 H   0  0  0  0  0  0  0  0  0  0  0  0
   -8.4140   -9.3830  -18.1910 H   0  0  0  0  0  0  0  0  0  0  0  0
  -10.4620  -12.3180  -18.9180 H   0  0  0  0  0  0  0  0  0  0  0  0
   -7.7940  -11.3670  -22.4510 H   0  0  0  0  0  0  0  0  0  0  0  0
   -9.1880  -12.2510  -23.2450 H   0  0  0  0  0  0  0  0  0  0  0  0
  1  2  2  0
  1  6  1  0
  2  3  1  0
  3  4  2  0
  3 24  1  0
  4  5  1  0
  4  8  1  0
  5  6  2  0
  5  7  1  0
  8  9  2  0
  8 10  1  0
 10 11  1  0
 11 12  2  0
 11 16  1  0
 12 13  1  0
 13 14  2  0
 14 15  1  0
 15 16  2  0
 15 17  1  0
 17 18  1  0
 18 19  2  0
 18 20  1  0
 20 21  1  0
 20 22  1  0
 21 22  1  0
 21 23  1  0
  1 27  1  0
  2 28  1  0
  6 29  1  0
 10 30  1  0
 12 31  1  0
 13 32  1  0
 16 33  1  0
 17 34  1  0
 20 25  1  0
 21 26  1  0
 22 35  1  0
 22 36  1  0
M  END
>  <LF dG>
-9.609

>  <LF VSscore>
-10.511

>  <LF Rank Score>
-10.603

>  <LF LE>
-0.4

>  <Favorite_cresset>
false

>  <Protein_cresset>
AF_fixed_His_P (1)

>  <MW_cresset>
368.2

>  <#Atoms_cresset>
24

>  <SlogP_cresset>
4

>  <TPSA_cresset>
71.1

>  <Flexibility_cresset>
1.8

>  <Rof5_cresset>
0

>  <Confs_cresset>
0

>  <Poses_cresset>
0

$$$$
